<?xml version="1.0" encoding="UTF-8"?>

<!-- generated on 11/28/20 19:49:18 by Eclipse SUMO netedit Version 1.7.0
<configuration xmlns:xsi="http://www.w3.org/2001/XMLSchema-instance" xsi:noNamespaceSchemaLocation="http://sumo.dlr.de/xsd/netconvertConfiguration.xsd">

    <input>
        <sumo-net-file value="E:\SUMO\week%2014\TLCS\intersection\environment.net.xml"/>
    </input>

    <output>
        <output-file value="E:\SUMO\week%2014\TLCS\intersection\environment.net.xml"/>
    </output>

    <processing>
        <geometry.min-radius.fix.railways value="false"/>
        <geometry.max-grade.fix value="false"/>
        <offset.disable-normalization value="true"/>
        <lefthand value="false"/>
    </processing>

    <junctions>
        <no-turnarounds value="true"/>
        <junctions.corner-detail value="5"/>
        <junctions.limit-turn-speed value="5.5"/>
        <rectangular-lane-cut value="false"/>
    </junctions>

    <pedestrian>
        <walkingareas value="false"/>
    </pedestrian>

    <report>
        <aggregate-warnings value="5"/>
    </report>

</configuration>
-->

<net version="1.6" junctionCornerDetail="5" limitTurnSpeed="5.50" xmlns:xsi="http://www.w3.org/2001/XMLSchema-instance" xsi:noNamespaceSchemaLocation="http://sumo.dlr.de/xsd/net_file.xsd">

    <location netOffset="0.00,0.00" convBoundary="-750.00,-750.00,750.00,750.00" origBoundary="-10000000000.00,-10000000000.00,10000000000.00,10000000000.00" projParameter="!"/>

    <edge id=":TL_0" function="internal">
        <lane id=":TL_0_0" index="0" speed="6.51" length="9.03" shape="-8.00,16.80 -8.35,14.35 -9.40,12.60 -11.15,11.55 -13.60,11.20"/>
    </edge>
    <edge id=":TL_1" function="internal">
        <lane id=":TL_1_0" index="0" speed="13.89" length="33.60" shape="-8.00,16.80 -8.00,-16.80"/>
        <lane id=":TL_1_1" index="1" speed="13.89" length="33.60" shape="-4.80,16.80 -4.80,-16.80"/>
    </edge>
    <edge id=":TL_3" function="internal">
        <lane id=":TL_3_0" index="0" speed="11.99" length="33.15" shape="-1.60,16.80 -0.12,8.67 3.61,-0.53 8.54,-8.08 13.60,-11.20"/>
    </edge>
    <edge id=":TL_4" function="internal">
        <lane id=":TL_4_0" index="0" speed="11.89" length="32.62" shape="-1.60,16.80 -0.65,5.95 2.20,-1.80 6.95,-6.45 13.60,-8.00"/>
    </edge>
    <edge id=":TL_5" function="internal">
        <lane id=":TL_5_0" index="0" speed="11.39" length="29.85" shape="-1.60,16.80 -0.65,7.35 2.20,0.60 6.95,-3.45 13.60,-4.80"/>
    </edge>
    <edge id=":TL_6" function="internal">
        <lane id=":TL_6_0" index="0" speed="10.88" length="27.14" shape="-1.60,16.80 -0.65,8.75 2.20,3.00 6.95,-0.45 13.60,-1.60"/>
    </edge>
    <edge id=":TL_7" function="internal">
        <lane id=":TL_7_0" index="0" speed="6.51" length="9.03" shape="13.60,11.20 11.15,11.55 9.40,12.60 8.35,14.35 8.00,16.80"/>
    </edge>
    <edge id=":TL_8" function="internal">
        <lane id=":TL_8_0" index="0" speed="13.89" length="27.20" shape="13.60,11.20 -13.60,11.20"/>
        <lane id=":TL_8_1" index="1" speed="13.89" length="27.20" shape="13.60,8.00 -13.60,8.00"/>
        <lane id=":TL_8_2" index="2" speed="13.89" length="27.20" shape="13.60,4.80 -13.60,4.80"/>
    </edge>
    <edge id=":TL_11" function="internal">
        <lane id=":TL_11_0" index="0" speed="11.84" length="32.30" shape="13.60,1.60 4.15,0.45 -2.60,-3.00 -6.65,-8.75 -8.00,-16.80"/>
    </edge>
    <edge id=":TL_12" function="internal">
        <lane id=":TL_12_0" index="0" speed="11.36" length="29.67" shape="13.60,1.60 5.55,0.45 -0.20,-3.00 -3.65,-8.75 -4.80,-16.80"/>
    </edge>
    <edge id=":TL_13" function="internal">
        <lane id=":TL_13_0" index="0" speed="10.88" length="27.14" shape="13.60,1.60 6.95,0.45 2.20,-3.00 -0.65,-8.75 -1.60,-16.80"/>
    </edge>
    <edge id=":TL_14" function="internal">
        <lane id=":TL_14_0" index="0" speed="6.51" length="9.03" shape="8.00,-16.80 8.35,-14.35 9.40,-12.60 11.15,-11.55 13.60,-11.20"/>
    </edge>
    <edge id=":TL_15" function="internal">
        <lane id=":TL_15_0" index="0" speed="13.89" length="33.60" shape="8.00,-16.80 8.00,16.80"/>
        <lane id=":TL_15_1" index="1" speed="13.89" length="33.60" shape="4.80,-16.80 4.80,16.80"/>
    </edge>
    <edge id=":TL_17" function="internal">
        <lane id=":TL_17_0" index="0" speed="11.99" length="33.15" shape="1.60,-16.80 0.12,-8.67 -3.61,0.53 -8.54,8.08 -13.60,11.20"/>
    </edge>
    <edge id=":TL_18" function="internal">
        <lane id=":TL_18_0" index="0" speed="11.89" length="32.62" shape="1.60,-16.80 0.65,-5.95 -2.20,1.80 -6.95,6.45 -13.60,8.00"/>
    </edge>
    <edge id=":TL_19" function="internal">
        <lane id=":TL_19_0" index="0" speed="11.39" length="29.85" shape="1.60,-16.80 0.65,-7.35 -2.20,-0.60 -6.95,3.45 -13.60,4.80"/>
    </edge>
    <edge id=":TL_20" function="internal">
        <lane id=":TL_20_0" index="0" speed="10.88" length="27.14" shape="1.60,-16.80 0.65,-8.75 -2.20,-3.00 -6.95,0.45 -13.60,1.60"/>
    </edge>
    <edge id=":TL_21" function="internal">
        <lane id=":TL_21_0" index="0" speed="6.51" length="9.03" shape="-13.60,-11.20 -11.15,-11.55 -9.40,-12.60 -8.35,-14.35 -8.00,-16.80"/>
    </edge>
    <edge id=":TL_22" function="internal">
        <lane id=":TL_22_0" index="0" speed="13.89" length="27.20" shape="-13.60,-11.20 13.60,-11.20"/>
        <lane id=":TL_22_1" index="1" speed="13.89" length="27.20" shape="-13.60,-8.00 13.60,-8.00"/>
        <lane id=":TL_22_2" index="2" speed="13.89" length="27.20" shape="-13.60,-4.80 13.60,-4.80"/>
    </edge>
    <edge id=":TL_25" function="internal">
        <lane id=":TL_25_0" index="0" speed="11.84" length="32.30" shape="-13.60,-1.60 -4.15,-0.45 2.60,3.00 6.65,8.75 8.00,16.80"/>
    </edge>
    <edge id=":TL_26" function="internal">
        <lane id=":TL_26_0" index="0" speed="11.36" length="29.67" shape="-13.60,-1.60 -5.55,-0.45 0.20,3.00 3.65,8.75 4.80,16.80"/>
    </edge>
    <edge id=":TL_27" function="internal">
        <lane id=":TL_27_0" index="0" speed="10.88" length="27.14" shape="-13.60,-1.60 -6.95,-0.45 -2.20,3.00 0.65,8.75 1.60,16.80"/>
    </edge>

    <edge id="E2TL" from="DE" to="TL" priority="-1" length="750.00">
        <lane id="E2TL_0" index="0" speed="13.89" length="750.00" shape="750.00,11.20 13.60,11.20"/>
        <lane id="E2TL_1" index="1" speed="13.89" length="750.00" shape="750.00,8.00 13.60,8.00"/>
        <lane id="E2TL_2" index="2" speed="13.89" length="750.00" shape="750.00,4.80 13.60,4.80"/>
        <lane id="E2TL_3" index="3" speed="13.89" length="750.00" shape="750.00,1.60 13.60,1.60"/>
    </edge>
    <edge id="N2TL" from="DN" to="TL" priority="-1" length="750.00">
        <lane id="N2TL_0" index="0" speed="13.89" length="750.00" shape="-8.00,750.00 -8.00,16.80"/>
        <lane id="N2TL_1" index="1" speed="13.89" length="750.00" shape="-4.80,750.00 -4.80,16.80"/>
        <lane id="N2TL_2" index="2" speed="13.89" length="750.00" shape="-1.60,750.00 -1.60,16.80"/>
    </edge>
    <edge id="S2TL" from="DS" to="TL" priority="-1" length="750.00">
        <lane id="S2TL_0" index="0" speed="13.89" length="750.00" shape="8.00,-750.00 8.00,-16.80"/>
        <lane id="S2TL_1" index="1" speed="13.89" length="750.00" shape="4.80,-750.00 4.80,-16.80"/>
        <lane id="S2TL_2" index="2" speed="13.89" length="750.00" shape="1.60,-750.00 1.60,-16.80"/>
    </edge>
    <edge id="TL2E" from="TL" to="DE" priority="-1" length="750.00">
        <lane id="TL2E_0" index="0" speed="13.89" length="750.00" shape="13.60,-11.20 750.00,-11.20"/>
        <lane id="TL2E_1" index="1" speed="13.89" length="750.00" shape="13.60,-8.00 750.00,-8.00"/>
        <lane id="TL2E_2" index="2" speed="13.89" length="750.00" shape="13.60,-4.80 750.00,-4.80"/>
        <lane id="TL2E_3" index="3" speed="13.89" length="750.00" shape="13.60,-1.60 750.00,-1.60"/>
    </edge>
    <edge id="TL2N" from="TL" to="DN" priority="-1" length="750.00">
        <lane id="TL2N_0" index="0" speed="13.89" length="750.00" shape="8.00,16.80 8.00,750.00"/>
        <lane id="TL2N_1" index="1" speed="13.89" length="750.00" shape="4.80,16.80 4.80,750.00"/>
        <lane id="TL2N_2" index="2" speed="13.89" length="750.00" shape="1.60,16.80 1.60,750.00"/>
    </edge>
    <edge id="TL2S" from="TL" to="DS" priority="-1" length="750.00">
        <lane id="TL2S_0" index="0" speed="13.89" length="750.00" shape="-8.00,-16.80 -8.00,-750.00"/>
        <lane id="TL2S_1" index="1" speed="13.89" length="750.00" shape="-4.80,-16.80 -4.80,-750.00"/>
        <lane id="TL2S_2" index="2" speed="13.89" length="750.00" shape="-1.60,-16.80 -1.60,-750.00"/>
    </edge>
    <edge id="TL2W" from="TL" to="DW" priority="-1" length="750.00">
        <lane id="TL2W_0" index="0" speed="13.89" length="750.00" shape="-13.60,11.20 -750.00,11.20"/>
        <lane id="TL2W_1" index="1" speed="13.89" length="750.00" shape="-13.60,8.00 -750.00,8.00"/>
        <lane id="TL2W_2" index="2" speed="13.89" length="750.00" shape="-13.60,4.80 -750.00,4.80"/>
        <lane id="TL2W_3" index="3" speed="13.89" length="750.00" shape="-13.60,1.60 -750.00,1.60"/>
    </edge>
    <edge id="W2TL" from="DW" to="TL" priority="-1" length="750.00">
        <lane id="W2TL_0" index="0" speed="13.89" length="750.00" shape="-750.00,-11.20 -13.60,-11.20"/>
        <lane id="W2TL_1" index="1" speed="13.89" length="750.00" shape="-750.00,-8.00 -13.60,-8.00"/>
        <lane id="W2TL_2" index="2" speed="13.89" length="750.00" shape="-750.00,-4.80 -13.60,-4.80"/>
        <lane id="W2TL_3" index="3" speed="13.89" length="750.00" shape="-750.00,-1.60 -13.60,-1.60"/>
    </edge>

    <tlLogic id="TL" type="static" programID="0" offset="0">
        <phase duration="24" state="GGGrrrrrrrrrrrGGGrrrrrrrrrrr"/>
        <phase duration="4"  state="yyyrrrrrrrrrrryyyrrrrrrrrrrr"/>
        <phase duration="24" state="rrrGGGGGrrrrrrrrrGGGGGrrrrrr"/>
        <phase duration="4"  state="rrryyyyyrrrrrrrrryyyyyrrrrrr"/>
        <phase duration="24" state="rrrrrrrGGGGrrrrrrrrrrGGGGrrr"/>
        <phase duration="4"  state="rrrrrrryyyyrrrrrrrrrryyyyrrr"/>
        <phase duration="24" state="rrrrrrrrrrrGGGrrrrrrrrrrrGGG"/>
        <phase duration="4"  state="rrrrrrrrrrryyyrrrrrrrrrrryyy"/>
    </tlLogic>

    <junction id="DE" type="dead_end" x="750.00" y="0.00" incLanes="TL2E_0 TL2E_1 TL2E_2 TL2E_3" intLanes="" shape="750.00,0.00 750.00,-12.80 750.00,0.00"/>
    <junction id="DN" type="dead_end" x="0.00" y="750.00" incLanes="TL2N_0 TL2N_1 TL2N_2" intLanes="" shape="0.00,750.00 9.60,750.00 0.00,750.00"/>
    <junction id="DS" type="dead_end" x="0.00" y="-750.00" incLanes="TL2S_0 TL2S_1 TL2S_2" intLanes="" shape="0.00,-750.00 -9.60,-750.00 0.00,-750.00"/>
    <junction id="DW" type="dead_end" x="-750.00" y="0.00" incLanes="TL2W_0 TL2W_1 TL2W_2 TL2W_3" intLanes="" shape="-750.00,0.00 -750.00,12.80 -750.00,0.00"/>
    <junction id="TL" type="traffic_light" x="0.00" y="0.00" incLanes="N2TL_0 N2TL_1 N2TL_2 E2TL_0 E2TL_1 E2TL_2 E2TL_3 S2TL_0 S2TL_1 S2TL_2 W2TL_0 W2TL_1 W2TL_2 W2TL_3" intLanes=":TL_0_0 :TL_1_0 :TL_1_1 :TL_3_0 :TL_4_0 :TL_5_0 :TL_6_0 :TL_7_0 :TL_8_0 :TL_8_1 :TL_8_2 :TL_11_0 :TL_12_0 :TL_13_0 :TL_14_0 :TL_15_0 :TL_15_1 :TL_17_0 :TL_18_0 :TL_19_0 :TL_20_0 :TL_21_0 :TL_22_0 :TL_22_1 :TL_22_2 :TL_25_0 :TL_26_0 :TL_27_0" shape="-9.60,16.80 9.60,16.80 10.04,14.58 10.60,13.80 11.38,13.24 12.38,12.91 13.60,12.80 13.60,-12.80 11.38,-13.24 10.60,-13.80 10.04,-14.58 9.71,-15.58 9.60,-16.80 -9.60,-16.80 -10.04,-14.58 -10.60,-13.80 -11.38,-13.24 -12.38,-12.91 -13.60,-12.80 -13.60,12.80 -11.38,13.24 -10.60,13.80 -10.04,14.58 -9.71,15.58">
        <request index="0"  response="0000000000000000011100000000" foes="0000000111100000011100000000" cont="0"/>
        <request index="1"  response="1111111000000011111100000000" foes="1111111111100011111100000000" cont="0"/>
        <request index="2"  response="1111111000000011111100000000" foes="1111111111100011111100000000" cont="0"/>
        <request index="3"  response="1111110000011111111100000000" foes="1111110000011111111100000000" cont="0"/>
        <request index="4"  response="1111110000011111111100000000" foes="1111110000011111111100000000" cont="0"/>
        <request index="5"  response="1111110000011111111100000000" foes="1111110000011111111100000000" cont="0"/>
        <request index="6"  response="1111110000011111111100000000" foes="1111110000011111111100000000" cont="0"/>
        <request index="7"  response="0000000000000000000000000000" foes="1110000000011000000000000000" cont="0"/>
        <request index="8"  response="0000000000000000000000000000" foes="1110000111111000000001111111" cont="0"/>
        <request index="9"  response="0000000000000000000000000000" foes="1110000111111000000001111111" cont="0"/>
        <request index="10" response="0000000000000000000000000000" foes="1110000111111000000001111111" cont="0"/>
        <request index="11" response="0001111000000000000000000000" foes="0001111111111000000001111110" cont="0"/>
        <request index="12" response="0001111000000000000000000000" foes="0001111111111000000001111110" cont="0"/>
        <request index="13" response="0001111000000000000000000000" foes="0001111111111000000001111110" cont="0"/>
        <request index="14" response="0001110000000000000000000000" foes="0001110000000000000001111000" cont="0"/>
        <request index="15" response="1111110000000011111110000000" foes="1111110000000011111111111000" cont="0"/>
        <request index="16" response="1111110000000011111110000000" foes="1111110000000011111111111000" cont="0"/>
        <request index="17" response="1111110000000011111100000111" foes="1111110000000011111100000111" cont="0"/>
        <request index="18" response="1111110000000011111100000111" foes="1111110000000011111100000111" cont="0"/>
        <request index="19" response="1111110000000011111100000111" foes="1111110000000011111100000111" cont="0"/>
        <request index="20" response="1111110000000011111100000111" foes="1111110000000011111100000111" cont="0"/>
        <request index="21" response="0000000000000000000000000000" foes="0000000000000011100000000110" cont="0"/>
        <request index="22" response="0000000000000000000000000000" foes="0000000111111111100001111110" cont="0"/>
        <request index="23" response="0000000000000000000000000000" foes="0000000111111111100001111110" cont="0"/>
        <request index="24" response="0000000000000000000000000000" foes="0000000111111111100001111110" cont="0"/>
        <request index="25" response="0000000000000000011110000000" foes="0000000111111000011111111110" cont="0"/>
        <request index="26" response="0000000000000000011110000000" foes="0000000111111000011111111110" cont="0"/>
        <request index="27" response="0000000000000000011110000000" foes="0000000111111000011111111110" cont="0"/>
    </junction>

    <connection from="E2TL" to="TL2N" fromLane="0" toLane="0" via=":TL_7_0" tl="TL" linkIndex="7" dir="r" state="O"/>
    <connection from="E2TL" to="TL2W" fromLane="0" toLane="0" via=":TL_8_0" tl="TL" linkIndex="8" dir="s" state="O"/>
    <connection from="E2TL" to="TL2W" fromLane="1" toLane="1" via=":TL_8_1" tl="TL" linkIndex="9" dir="s" state="O"/>
    <connection from="E2TL" to="TL2W" fromLane="2" toLane="2" via=":TL_8_2" tl="TL" linkIndex="10" dir="s" state="O"/>
    <connection from="E2TL" to="TL2S" fromLane="3" toLane="0" via=":TL_11_0" tl="TL" linkIndex="11" dir="l" state="o"/>
    <connection from="E2TL" to="TL2S" fromLane="3" toLane="1" via=":TL_12_0" tl="TL" linkIndex="12" dir="l" state="o"/>
    <connection from="E2TL" to="TL2S" fromLane="3" toLane="2" via=":TL_13_0" tl="TL" linkIndex="13" dir="l" state="o"/>
    <connection from="N2TL" to="TL2W" fromLane="0" toLane="0" via=":TL_0_0" tl="TL" linkIndex="0" dir="r" state="o"/>
    <connection from="N2TL" to="TL2S" fromLane="0" toLane="0" via=":TL_1_0" tl="TL" linkIndex="1" dir="s" state="o"/>
    <connection from="N2TL" to="TL2S" fromLane="1" toLane="1" via=":TL_1_1" tl="TL" linkIndex="2" dir="s" state="o"/>
    <connection from="N2TL" to="TL2E" fromLane="2" toLane="0" via=":TL_3_0" tl="TL" linkIndex="3" dir="l" state="o"/>
    <connection from="N2TL" to="TL2E" fromLane="2" toLane="1" via=":TL_4_0" tl="TL" linkIndex="4" dir="l" state="o"/>
    <connection from="N2TL" to="TL2E" fromLane="2" toLane="2" via=":TL_5_0" tl="TL" linkIndex="5" dir="l" state="o"/>
    <connection from="N2TL" to="TL2E" fromLane="2" toLane="3" via=":TL_6_0" tl="TL" linkIndex="6" dir="l" state="o"/>
    <connection from="S2TL" to="TL2E" fromLane="0" toLane="0" via=":TL_14_0" tl="TL" linkIndex="14" dir="r" state="o"/>
    <connection from="S2TL" to="TL2N" fromLane="0" toLane="0" via=":TL_15_0" tl="TL" linkIndex="15" dir="s" state="o"/>
    <connection from="S2TL" to="TL2N" fromLane="1" toLane="1" via=":TL_15_1" tl="TL" linkIndex="16" dir="s" state="o"/>
    <connection from="S2TL" to="TL2W" fromLane="2" toLane="0" via=":TL_17_0" tl="TL" linkIndex="17" dir="l" state="o"/>
    <connection from="S2TL" to="TL2W" fromLane="2" toLane="1" via=":TL_18_0" tl="TL" linkIndex="18" dir="l" state="o"/>
    <connection from="S2TL" to="TL2W" fromLane="2" toLane="2" via=":TL_19_0" tl="TL" linkIndex="19" dir="l" state="o"/>
    <connection from="S2TL" to="TL2W" fromLane="2" toLane="3" via=":TL_20_0" tl="TL" linkIndex="20" dir="l" state="o"/>
    <connection from="W2TL" to="TL2S" fromLane="0" toLane="0" via=":TL_21_0" tl="TL" linkIndex="21" dir="r" state="O"/>
    <connection from="W2TL" to="TL2E" fromLane="0" toLane="0" via=":TL_22_0" tl="TL" linkIndex="22" dir="s" state="O"/>
    <connection from="W2TL" to="TL2E" fromLane="1" toLane="1" via=":TL_22_1" tl="TL" linkIndex="23" dir="s" state="O"/>
    <connection from="W2TL" to="TL2E" fromLane="2" toLane="2" via=":TL_22_2" tl="TL" linkIndex="24" dir="s" state="O"/>
    <connection from="W2TL" to="TL2N" fromLane="3" toLane="0" via=":TL_25_0" tl="TL" linkIndex="25" dir="l" state="o"/>
    <connection from="W2TL" to="TL2N" fromLane="3" toLane="1" via=":TL_26_0" tl="TL" linkIndex="26" dir="l" state="o"/>
    <connection from="W2TL" to="TL2N" fromLane="3" toLane="2" via=":TL_27_0" tl="TL" linkIndex="27" dir="l" state="o"/>

    <connection from=":TL_0" to="TL2W" fromLane="0" toLane="0" dir="r" state="M"/>
    <connection from=":TL_1" to="TL2S" fromLane="0" toLane="0" dir="s" state="M"/>
    <connection from=":TL_1" to="TL2S" fromLane="1" toLane="1" dir="s" state="M"/>
    <connection from=":TL_3" to="TL2E" fromLane="0" toLane="0" dir="l" state="M"/>
    <connection from=":TL_4" to="TL2E" fromLane="0" toLane="1" dir="l" state="M"/>
    <connection from=":TL_5" to="TL2E" fromLane="0" toLane="2" dir="l" state="M"/>
    <connection from=":TL_6" to="TL2E" fromLane="0" toLane="3" dir="l" state="M"/>
    <connection from=":TL_7" to="TL2N" fromLane="0" toLane="0" dir="r" state="M"/>
    <connection from=":TL_8" to="TL2W" fromLane="0" toLane="0" dir="s" state="M"/>
    <connection from=":TL_8" to="TL2W" fromLane="1" toLane="1" dir="s" state="M"/>
    <connection from=":TL_8" to="TL2W" fromLane="2" toLane="2" dir="s" state="M"/>
    <connection from=":TL_11" to="TL2S" fromLane="0" toLane="0" dir="l" state="M"/>
    <connection from=":TL_12" to="TL2S" fromLane="0" toLane="1" dir="l" state="M"/>
    <connection from=":TL_13" to="TL2S" fromLane="0" toLane="2" dir="l" state="M"/>
    <connection from=":TL_14" to="TL2E" fromLane="0" toLane="0" dir="r" state="M"/>
    <connection from=":TL_15" to="TL2N" fromLane="0" toLane="0" dir="s" state="M"/>
    <connection from=":TL_15" to="TL2N" fromLane="1" toLane="1" dir="s" state="M"/>
    <connection from=":TL_17" to="TL2W" fromLane="0" toLane="0" dir="l" state="M"/>
    <connection from=":TL_18" to="TL2W" fromLane="0" toLane="1" dir="l" state="M"/>
    <connection from=":TL_19" to="TL2W" fromLane="0" toLane="2" dir="l" state="M"/>
    <connection from=":TL_20" to="TL2W" fromLane="0" toLane="3" dir="l" state="M"/>
    <connection from=":TL_21" to="TL2S" fromLane="0" toLane="0" dir="r" state="M"/>
    <connection from=":TL_22" to="TL2E" fromLane="0" toLane="0" dir="s" state="M"/>
    <connection from=":TL_22" to="TL2E" fromLane="1" toLane="1" dir="s" state="M"/>
    <connection from=":TL_22" to="TL2E" fromLane="2" toLane="2" dir="s" state="M"/>
    <connection from=":TL_25" to="TL2N" fromLane="0" toLane="0" dir="l" state="M"/>
    <connection from=":TL_26" to="TL2N" fromLane="0" toLane="1" dir="l" state="M"/>
    <connection from=":TL_27" to="TL2N" fromLane="0" toLane="2" dir="l" state="M"/>

</net>
